<?xml version="1.0" encoding="UTF-8"?>

<!-- generated on 2026-02-19T12:06:41.619184+05:30 by Eclipse SUMO netconvert 1.26.0
<netconvertConfiguration xmlns:xsi="http://www.w3.org/2001/XMLSchema-instance" xsi:noNamespaceSchemaLocation="http://sumo.dlr.de/xsd/netconvertConfiguration.xsd">

    <input>
        <node-files value="sumo_config/nexus.nod.xml"/>
        <edge-files value="sumo_config/nexus.edg.xml"/>
    </input>

    <output>
        <output-file value="sumo_config/nexus.net.xml"/>
    </output>

</netconvertConfiguration>
-->

<net version="1.20" junctionCornerDetail="5" limitTurnSpeed="5.50" xmlns:xsi="http://www.w3.org/2001/XMLSchema-instance" xsi:noNamespaceSchemaLocation="http://sumo.dlr.de/xsd/net_file.xsd">

    <location netOffset="300.00,300.00" convBoundary="0.00,0.00,600.00,600.00" origBoundary="-300.00,-300.00,300.00,300.00" projParameter="!"/>

    <edge id=":J1_0" function="internal">
        <lane id=":J1_0_0" index="0" speed="7.33" length="11.73" shape="292.00,313.60 291.65,309.75 290.60,307.00 288.85,305.35 286.40,304.80"/>
    </edge>
    <edge id=":J1_1" function="internal">
        <lane id=":J1_1_0" index="0" speed="15.00" length="27.43" shape="292.00,313.60 292.50,304.98 293.60,298.61 294.70,292.94 295.20,286.40"/>
        <lane id=":J1_1_1" index="1" speed="15.00" length="27.43" shape="295.20,313.60 295.70,304.98 296.80,298.61 297.90,292.94 298.40,286.40"/>
    </edge>
    <edge id=":J1_3" function="internal">
        <lane id=":J1_3_0" index="0" speed="10.36" length="7.16" shape="298.40,313.60 299.35,306.95 299.58,306.57"/>
    </edge>
    <edge id=":J1_4" function="internal">
        <lane id=":J1_4_0" index="0" speed="3.65" length="1.44" shape="298.40,313.60 299.20,312.40"/>
    </edge>
    <edge id=":J1_20" function="internal">
        <lane id=":J1_20_0" index="0" speed="10.36" length="17.36" shape="299.58,306.57 302.20,302.20 306.95,299.35 313.60,298.40"/>
    </edge>
    <edge id=":J1_21" function="internal">
        <lane id=":J1_21_0" index="0" speed="3.65" length="3.23" shape="299.20,312.40 300.00,312.00 300.80,312.40 301.60,313.60"/>
    </edge>
    <edge id=":J1_5" function="internal">
        <lane id=":J1_5_0" index="0" speed="7.33" length="11.73" shape="313.60,308.00 309.75,308.35 307.00,309.40 305.35,311.15 304.80,313.60"/>
    </edge>
    <edge id=":J1_6" function="internal">
        <lane id=":J1_6_0" index="0" speed="15.00" length="27.43" shape="313.60,308.00 304.98,307.50 298.61,306.40 292.94,305.30 286.40,304.80"/>
        <lane id=":J1_6_1" index="1" speed="15.00" length="27.43" shape="313.60,304.80 304.98,304.30 298.61,303.20 292.94,302.10 286.40,301.60"/>
    </edge>
    <edge id=":J1_8" function="internal">
        <lane id=":J1_8_0" index="0" speed="10.36" length="7.16" shape="313.60,301.60 306.95,300.65 306.57,300.42"/>
    </edge>
    <edge id=":J1_9" function="internal">
        <lane id=":J1_9_0" index="0" speed="3.65" length="1.44" shape="313.60,301.60 312.40,300.80"/>
    </edge>
    <edge id=":J1_22" function="internal">
        <lane id=":J1_22_0" index="0" speed="10.36" length="17.36" shape="306.57,300.42 302.20,297.80 299.35,293.05 298.40,286.40"/>
    </edge>
    <edge id=":J1_23" function="internal">
        <lane id=":J1_23_0" index="0" speed="3.65" length="3.23" shape="312.40,300.80 312.00,300.00 312.40,299.20 313.60,298.40"/>
    </edge>
    <edge id=":J1_10" function="internal">
        <lane id=":J1_10_0" index="0" speed="7.33" length="11.73" shape="308.00,286.40 308.35,290.25 309.40,293.00 311.15,294.65 313.60,295.20"/>
    </edge>
    <edge id=":J1_11" function="internal">
        <lane id=":J1_11_0" index="0" speed="15.00" length="27.43" shape="308.00,286.40 307.50,295.02 306.40,301.39 305.30,307.06 304.80,313.60"/>
        <lane id=":J1_11_1" index="1" speed="15.00" length="27.43" shape="304.80,286.40 304.30,295.02 303.20,301.39 302.10,307.06 301.60,313.60"/>
    </edge>
    <edge id=":J1_13" function="internal">
        <lane id=":J1_13_0" index="0" speed="10.36" length="7.16" shape="301.60,286.40 300.65,293.05 300.42,293.43"/>
    </edge>
    <edge id=":J1_14" function="internal">
        <lane id=":J1_14_0" index="0" speed="3.65" length="1.44" shape="301.60,286.40 300.80,287.60"/>
    </edge>
    <edge id=":J1_24" function="internal">
        <lane id=":J1_24_0" index="0" speed="10.36" length="17.36" shape="300.42,293.43 297.80,297.80 293.05,300.65 286.40,301.60"/>
    </edge>
    <edge id=":J1_25" function="internal">
        <lane id=":J1_25_0" index="0" speed="3.65" length="3.23" shape="300.80,287.60 300.00,288.00 299.20,287.60 298.40,286.40"/>
    </edge>
    <edge id=":J1_15" function="internal">
        <lane id=":J1_15_0" index="0" speed="7.33" length="11.73" shape="286.40,292.00 290.25,291.65 293.00,290.60 294.65,288.85 295.20,286.40"/>
    </edge>
    <edge id=":J1_16" function="internal">
        <lane id=":J1_16_0" index="0" speed="15.00" length="27.43" shape="286.40,292.00 295.02,292.50 301.39,293.60 307.06,294.70 313.60,295.20"/>
        <lane id=":J1_16_1" index="1" speed="15.00" length="27.43" shape="286.40,295.20 295.02,295.70 301.39,296.80 307.06,297.90 313.60,298.40"/>
    </edge>
    <edge id=":J1_18" function="internal">
        <lane id=":J1_18_0" index="0" speed="10.36" length="7.16" shape="286.40,298.40 293.05,299.35 293.43,299.58"/>
    </edge>
    <edge id=":J1_19" function="internal">
        <lane id=":J1_19_0" index="0" speed="3.65" length="1.44" shape="286.40,298.40 287.60,299.20"/>
    </edge>
    <edge id=":J1_26" function="internal">
        <lane id=":J1_26_0" index="0" speed="10.36" length="17.36" shape="293.43,299.58 297.80,302.20 300.65,306.95 301.60,313.60"/>
    </edge>
    <edge id=":J1_27" function="internal">
        <lane id=":J1_27_0" index="0" speed="3.65" length="3.23" shape="287.60,299.20 288.00,300.00 287.60,300.80 286.40,301.60"/>
    </edge>
    <edge id=":e_0" function="internal">
        <lane id=":e_0_0" index="0" speed="3.65" length="4.67" shape="600.00,298.40 601.20,299.20 601.60,300.00 601.20,300.80 600.00,301.60"/>
    </edge>
    <edge id=":n_0" function="internal">
        <lane id=":n_0_0" index="0" speed="3.65" length="4.67" shape="301.60,600.00 300.80,601.20 300.00,601.60 299.20,601.20 298.40,600.00"/>
    </edge>
    <edge id=":s_0" function="internal">
        <lane id=":s_0_0" index="0" speed="3.65" length="4.67" shape="298.40,0.00 299.20,-1.20 300.00,-1.60 300.80,-1.20 301.60,0.00"/>
    </edge>
    <edge id=":w_0" function="internal">
        <lane id=":w_0_0" index="0" speed="3.65" length="4.67" shape="0.00,301.60 -1.20,300.80 -1.60,300.00 -1.20,299.20 0.00,298.40"/>
    </edge>

    <edge id="J1_to_e" from="J1" to="e" priority="1">
        <lane id="J1_to_e_0" index="0" speed="15.00" length="286.40" shape="313.60,295.20 600.00,295.20"/>
        <lane id="J1_to_e_1" index="1" speed="15.00" length="286.40" shape="313.60,298.40 600.00,298.40"/>
    </edge>
    <edge id="J1_to_n" from="J1" to="n" priority="1">
        <lane id="J1_to_n_0" index="0" speed="15.00" length="286.40" shape="304.80,313.60 304.80,600.00"/>
        <lane id="J1_to_n_1" index="1" speed="15.00" length="286.40" shape="301.60,313.60 301.60,600.00"/>
    </edge>
    <edge id="J1_to_s" from="J1" to="s" priority="1">
        <lane id="J1_to_s_0" index="0" speed="15.00" length="286.40" shape="295.20,286.40 295.20,0.00"/>
        <lane id="J1_to_s_1" index="1" speed="15.00" length="286.40" shape="298.40,286.40 298.40,0.00"/>
    </edge>
    <edge id="J1_to_w" from="J1" to="w" priority="1">
        <lane id="J1_to_w_0" index="0" speed="15.00" length="286.40" shape="286.40,304.80 0.00,304.80"/>
        <lane id="J1_to_w_1" index="1" speed="15.00" length="286.40" shape="286.40,301.60 0.00,301.60"/>
    </edge>
    <edge id="e_to_J1" from="e" to="J1" priority="1">
        <lane id="e_to_J1_0" index="0" speed="15.00" length="286.40" shape="600.00,308.00 313.60,308.00"/>
        <lane id="e_to_J1_1" index="1" speed="15.00" length="286.40" shape="600.00,304.80 313.60,304.80"/>
        <lane id="e_to_J1_2" index="2" speed="15.00" length="286.40" shape="600.00,301.60 313.60,301.60"/>
    </edge>
    <edge id="n_to_J1" from="n" to="J1" priority="1">
        <lane id="n_to_J1_0" index="0" speed="15.00" length="286.40" shape="292.00,600.00 292.00,313.60"/>
        <lane id="n_to_J1_1" index="1" speed="15.00" length="286.40" shape="295.20,600.00 295.20,313.60"/>
        <lane id="n_to_J1_2" index="2" speed="15.00" length="286.40" shape="298.40,600.00 298.40,313.60"/>
    </edge>
    <edge id="s_to_J1" from="s" to="J1" priority="1">
        <lane id="s_to_J1_0" index="0" speed="15.00" length="286.40" shape="308.00,0.00 308.00,286.40"/>
        <lane id="s_to_J1_1" index="1" speed="15.00" length="286.40" shape="304.80,0.00 304.80,286.40"/>
        <lane id="s_to_J1_2" index="2" speed="15.00" length="286.40" shape="301.60,0.00 301.60,286.40"/>
    </edge>
    <edge id="w_to_J1" from="w" to="J1" priority="1">
        <lane id="w_to_J1_0" index="0" speed="15.00" length="286.40" shape="0.00,292.00 286.40,292.00"/>
        <lane id="w_to_J1_1" index="1" speed="15.00" length="286.40" shape="0.00,295.20 286.40,295.20"/>
        <lane id="w_to_J1_2" index="2" speed="15.00" length="286.40" shape="0.00,298.40 286.40,298.40"/>
    </edge>

    <tlLogic id="J1" type="static" programID="0" offset="0">
        <phase duration="33" state="GGGggrrrrrGGGggrrrrr"/>
        <phase duration="3"  state="yyyggrrrrryyyggrrrrr"/>
        <phase duration="6"  state="rrrGGrrrrrrrrGGrrrrr"/>
        <phase duration="3"  state="rrryyrrrrrrrryyrrrrr"/>
        <phase duration="33" state="rrrrrGGGggrrrrrGGGgg"/>
        <phase duration="3"  state="rrrrryyyggrrrrryyygg"/>
        <phase duration="6"  state="rrrrrrrrGGrrrrrrrrGG"/>
        <phase duration="3"  state="rrrrrrrryyrrrrrrrryy"/>
    </tlLogic>

    <junction id="J1" type="traffic_light" x="300.00" y="300.00" incLanes="n_to_J1_0 n_to_J1_1 n_to_J1_2 e_to_J1_0 e_to_J1_1 e_to_J1_2 s_to_J1_0 s_to_J1_1 s_to_J1_2 w_to_J1_0 w_to_J1_1 w_to_J1_2" intLanes=":J1_0_0 :J1_1_0 :J1_1_1 :J1_20_0 :J1_21_0 :J1_5_0 :J1_6_0 :J1_6_1 :J1_22_0 :J1_23_0 :J1_10_0 :J1_11_0 :J1_11_1 :J1_24_0 :J1_25_0 :J1_15_0 :J1_16_0 :J1_16_1 :J1_26_0 :J1_27_0" shape="290.40,313.60 306.40,313.60 307.20,311.38 308.20,310.60 309.60,310.04 311.40,309.71 313.60,309.60 313.60,293.60 311.38,292.80 310.60,291.80 310.04,290.40 309.71,288.60 309.60,286.40 293.60,286.40 292.80,288.62 291.80,289.40 290.40,289.96 288.60,290.29 286.40,290.40 286.40,306.40 288.62,307.20 289.40,308.20 289.96,309.60 290.29,311.40">
        <request index="0"  response="00000000000000000000" foes="00000000000011000000" cont="0"/>
        <request index="1"  response="01000000000000000000" foes="01111110000111000000" cont="0"/>
        <request index="2"  response="01000000000100000000" foes="01111110000111000000" cont="0"/>
        <request index="3"  response="01000001100100000000" foes="01110001101111000000" cont="1"/>
        <request index="4"  response="01000001100000000000" foes="01000001100000000000" cont="1"/>
        <request index="5"  response="00000001100000000000" foes="00000001100000000000" cont="0"/>
        <request index="6"  response="00000011100000001111" foes="11000011100000001111" cont="0"/>
        <request index="7"  response="00000011100000001111" foes="11000011100000001111" cont="0"/>
        <request index="8"  response="00110011100000001110" foes="00110111100000001110" cont="1"/>
        <request index="9"  response="00110000000000001000" foes="00110000000000001000" cont="1"/>
        <request index="10" response="00000000000000000000" foes="00110000000000000000" cont="0"/>
        <request index="11" response="00000000000100000000" foes="01110000000111111000" cont="0"/>
        <request index="12" response="01000000000100000000" foes="01110000000111111000" cont="0"/>
        <request index="13" response="01000000000100000110" foes="11110000000111000110" cont="1"/>
        <request index="14" response="00000000000100000110" foes="00000000000100000110" cont="1"/>
        <request index="15" response="00000000000000000110" foes="00000000000000000110" cont="0"/>
        <request index="16" response="00000011110000001110" foes="00000011111100001110" cont="0"/>
        <request index="17" response="00000011110000001110" foes="00000011111100001110" cont="0"/>
        <request index="18" response="00000011100011001110" foes="00000011100011011110" cont="1"/>
        <request index="19" response="00000010000011000000" foes="00000010000011000000" cont="1"/>
    </junction>
    <junction id="e" type="priority" x="600.00" y="300.00" incLanes="J1_to_e_0 J1_to_e_1" intLanes=":e_0_0" shape="600.00,300.00 600.00,293.60 600.00,300.00">
        <request index="0" response="0" foes="0" cont="0"/>
    </junction>
    <junction id="n" type="priority" x="300.00" y="600.00" incLanes="J1_to_n_0 J1_to_n_1" intLanes=":n_0_0" shape="300.00,600.00 306.40,600.00 300.00,600.00">
        <request index="0" response="0" foes="0" cont="0"/>
    </junction>
    <junction id="s" type="priority" x="300.00" y="0.00" incLanes="J1_to_s_0 J1_to_s_1" intLanes=":s_0_0" shape="300.00,0.00 293.60,0.00 300.00,0.00">
        <request index="0" response="0" foes="0" cont="0"/>
    </junction>
    <junction id="w" type="priority" x="0.00" y="300.00" incLanes="J1_to_w_0 J1_to_w_1" intLanes=":w_0_0" shape="0.00,300.00 0.00,306.40 0.00,300.00">
        <request index="0" response="0" foes="0" cont="0"/>
    </junction>

    <junction id=":J1_20_0" type="internal" x="299.58" y="306.57" incLanes=":J1_3_0 s_to_J1_0 s_to_J1_1" intLanes=":J1_6_0 :J1_6_1 :J1_8_0 :J1_9_0 :J1_10_0 :J1_11_0 :J1_11_1 :J1_16_0 :J1_16_1 :J1_18_0"/>
    <junction id=":J1_21_0" type="internal" x="299.20" y="312.40" incLanes=":J1_4_0 e_to_J1_0 s_to_J1_0 s_to_J1_1 w_to_J1_2" intLanes=":J1_5_0 :J1_11_0 :J1_11_1 :J1_18_0"/>
    <junction id=":J1_22_0" type="internal" x="306.57" y="300.42" incLanes=":J1_8_0 w_to_J1_0 w_to_J1_1" intLanes=":J1_1_0 :J1_1_1 :J1_3_0 :J1_11_0 :J1_11_1 :J1_13_0 :J1_14_0 :J1_15_0 :J1_16_0 :J1_16_1"/>
    <junction id=":J1_23_0" type="internal" x="312.40" y="300.80" incLanes=":J1_9_0 n_to_J1_2 s_to_J1_0 w_to_J1_0 w_to_J1_1" intLanes=":J1_3_0 :J1_10_0 :J1_16_0 :J1_16_1"/>
    <junction id=":J1_24_0" type="internal" x="300.42" y="293.43" incLanes=":J1_13_0 n_to_J1_0 n_to_J1_1" intLanes=":J1_0_0 :J1_1_0 :J1_1_1 :J1_6_0 :J1_6_1 :J1_8_0 :J1_16_0 :J1_16_1 :J1_18_0 :J1_19_0"/>
    <junction id=":J1_25_0" type="internal" x="300.80" y="287.60" incLanes=":J1_14_0 e_to_J1_2 n_to_J1_0 n_to_J1_1 w_to_J1_0" intLanes=":J1_1_0 :J1_1_1 :J1_8_0 :J1_15_0"/>
    <junction id=":J1_26_0" type="internal" x="293.43" y="299.58" incLanes=":J1_18_0 e_to_J1_0 e_to_J1_1" intLanes=":J1_1_0 :J1_1_1 :J1_3_0 :J1_4_0 :J1_5_0 :J1_6_0 :J1_6_1 :J1_11_0 :J1_11_1 :J1_13_0"/>
    <junction id=":J1_27_0" type="internal" x="287.60" y="299.20" incLanes=":J1_19_0 e_to_J1_0 e_to_J1_1 n_to_J1_0 s_to_J1_2" intLanes=":J1_0_0 :J1_6_0 :J1_6_1 :J1_13_0"/>

    <connection from="J1_to_e" to="e_to_J1" fromLane="1" toLane="2" via=":e_0_0" dir="t" state="M"/>
    <connection from="J1_to_n" to="n_to_J1" fromLane="1" toLane="2" via=":n_0_0" dir="t" state="M"/>
    <connection from="J1_to_s" to="s_to_J1" fromLane="1" toLane="2" via=":s_0_0" dir="t" state="M"/>
    <connection from="J1_to_w" to="w_to_J1" fromLane="1" toLane="2" via=":w_0_0" dir="t" state="M"/>
    <connection from="e_to_J1" to="J1_to_n" fromLane="0" toLane="0" via=":J1_5_0" tl="J1" linkIndex="5" dir="r" state="o"/>
    <connection from="e_to_J1" to="J1_to_w" fromLane="0" toLane="0" via=":J1_6_0" tl="J1" linkIndex="6" dir="s" state="o"/>
    <connection from="e_to_J1" to="J1_to_w" fromLane="1" toLane="1" via=":J1_6_1" tl="J1" linkIndex="7" dir="s" state="o"/>
    <connection from="e_to_J1" to="J1_to_s" fromLane="2" toLane="1" via=":J1_8_0" tl="J1" linkIndex="8" dir="l" state="o"/>
    <connection from="e_to_J1" to="J1_to_e" fromLane="2" toLane="1" via=":J1_9_0" tl="J1" linkIndex="9" dir="t" state="o"/>
    <connection from="n_to_J1" to="J1_to_w" fromLane="0" toLane="0" via=":J1_0_0" tl="J1" linkIndex="0" dir="r" state="O"/>
    <connection from="n_to_J1" to="J1_to_s" fromLane="0" toLane="0" via=":J1_1_0" tl="J1" linkIndex="1" dir="s" state="O"/>
    <connection from="n_to_J1" to="J1_to_s" fromLane="1" toLane="1" via=":J1_1_1" tl="J1" linkIndex="2" dir="s" state="O"/>
    <connection from="n_to_J1" to="J1_to_e" fromLane="2" toLane="1" via=":J1_3_0" tl="J1" linkIndex="3" dir="l" state="o"/>
    <connection from="n_to_J1" to="J1_to_n" fromLane="2" toLane="1" via=":J1_4_0" tl="J1" linkIndex="4" dir="t" state="o"/>
    <connection from="s_to_J1" to="J1_to_e" fromLane="0" toLane="0" via=":J1_10_0" tl="J1" linkIndex="10" dir="r" state="O"/>
    <connection from="s_to_J1" to="J1_to_n" fromLane="0" toLane="0" via=":J1_11_0" tl="J1" linkIndex="11" dir="s" state="O"/>
    <connection from="s_to_J1" to="J1_to_n" fromLane="1" toLane="1" via=":J1_11_1" tl="J1" linkIndex="12" dir="s" state="O"/>
    <connection from="s_to_J1" to="J1_to_w" fromLane="2" toLane="1" via=":J1_13_0" tl="J1" linkIndex="13" dir="l" state="o"/>
    <connection from="s_to_J1" to="J1_to_s" fromLane="2" toLane="1" via=":J1_14_0" tl="J1" linkIndex="14" dir="t" state="o"/>
    <connection from="w_to_J1" to="J1_to_s" fromLane="0" toLane="0" via=":J1_15_0" tl="J1" linkIndex="15" dir="r" state="o"/>
    <connection from="w_to_J1" to="J1_to_e" fromLane="0" toLane="0" via=":J1_16_0" tl="J1" linkIndex="16" dir="s" state="o"/>
    <connection from="w_to_J1" to="J1_to_e" fromLane="1" toLane="1" via=":J1_16_1" tl="J1" linkIndex="17" dir="s" state="o"/>
    <connection from="w_to_J1" to="J1_to_n" fromLane="2" toLane="1" via=":J1_18_0" tl="J1" linkIndex="18" dir="l" state="o"/>
    <connection from="w_to_J1" to="J1_to_w" fromLane="2" toLane="1" via=":J1_19_0" tl="J1" linkIndex="19" dir="t" state="o"/>

    <connection from=":J1_0" to="J1_to_w" fromLane="0" toLane="0" dir="r" state="M"/>
    <connection from=":J1_1" to="J1_to_s" fromLane="0" toLane="0" dir="s" state="M"/>
    <connection from=":J1_1" to="J1_to_s" fromLane="1" toLane="1" dir="s" state="M"/>
    <connection from=":J1_3" to="J1_to_e" fromLane="0" toLane="1" via=":J1_20_0" dir="l" state="m"/>
    <connection from=":J1_20" to="J1_to_e" fromLane="0" toLane="1" dir="l" state="M"/>
    <connection from=":J1_4" to="J1_to_n" fromLane="0" toLane="1" via=":J1_21_0" dir="t" state="m"/>
    <connection from=":J1_21" to="J1_to_n" fromLane="0" toLane="1" dir="t" state="M"/>
    <connection from=":J1_5" to="J1_to_n" fromLane="0" toLane="0" dir="r" state="M"/>
    <connection from=":J1_6" to="J1_to_w" fromLane="0" toLane="0" dir="s" state="M"/>
    <connection from=":J1_6" to="J1_to_w" fromLane="1" toLane="1" dir="s" state="M"/>
    <connection from=":J1_8" to="J1_to_s" fromLane="0" toLane="1" via=":J1_22_0" dir="l" state="m"/>
    <connection from=":J1_22" to="J1_to_s" fromLane="0" toLane="1" dir="l" state="M"/>
    <connection from=":J1_9" to="J1_to_e" fromLane="0" toLane="1" via=":J1_23_0" dir="t" state="m"/>
    <connection from=":J1_23" to="J1_to_e" fromLane="0" toLane="1" dir="t" state="M"/>
    <connection from=":J1_10" to="J1_to_e" fromLane="0" toLane="0" dir="r" state="M"/>
    <connection from=":J1_11" to="J1_to_n" fromLane="0" toLane="0" dir="s" state="M"/>
    <connection from=":J1_11" to="J1_to_n" fromLane="1" toLane="1" dir="s" state="M"/>
    <connection from=":J1_13" to="J1_to_w" fromLane="0" toLane="1" via=":J1_24_0" dir="l" state="m"/>
    <connection from=":J1_24" to="J1_to_w" fromLane="0" toLane="1" dir="l" state="M"/>
    <connection from=":J1_14" to="J1_to_s" fromLane="0" toLane="1" via=":J1_25_0" dir="t" state="m"/>
    <connection from=":J1_25" to="J1_to_s" fromLane="0" toLane="1" dir="t" state="M"/>
    <connection from=":J1_15" to="J1_to_s" fromLane="0" toLane="0" dir="r" state="M"/>
    <connection from=":J1_16" to="J1_to_e" fromLane="0" toLane="0" dir="s" state="M"/>
    <connection from=":J1_16" to="J1_to_e" fromLane="1" toLane="1" dir="s" state="M"/>
    <connection from=":J1_18" to="J1_to_n" fromLane="0" toLane="1" via=":J1_26_0" dir="l" state="m"/>
    <connection from=":J1_26" to="J1_to_n" fromLane="0" toLane="1" dir="l" state="M"/>
    <connection from=":J1_19" to="J1_to_w" fromLane="0" toLane="1" via=":J1_27_0" dir="t" state="m"/>
    <connection from=":J1_27" to="J1_to_w" fromLane="0" toLane="1" dir="t" state="M"/>
    <connection from=":e_0" to="e_to_J1" fromLane="0" toLane="2" dir="t" state="M"/>
    <connection from=":n_0" to="n_to_J1" fromLane="0" toLane="2" dir="t" state="M"/>
    <connection from=":s_0" to="s_to_J1" fromLane="0" toLane="2" dir="t" state="M"/>
    <connection from=":w_0" to="w_to_J1" fromLane="0" toLane="2" dir="t" state="M"/>

</net>
