<nodes>
    <node id="J1" x="0.0" y="0.0" type="traffic_light"/>
    <node id="n" x="0.0" y="300.0" type="priority"/>
    <node id="s" x="0.0" y="-300.0" type="priority"/>
    <node id="e" x="300.0" y="0.0" type="priority"/>
    <node id="w" x="-300.0" y="0.0" type="priority"/>
</nodes>